LAMMPS (24 Aug 2020)
#-----------------Initialization-----------------------------------------
units 		metal
dimension	3
boundary	p p p
atom_style	atomic

timestep 	0.001
#0.001 pico seconds = 1 femto second

read_data 	datafile
Reading data file ...
  orthogonal box = (0.0000000 0.0000000 0.0000000) to (19.950000 19.950000 119.70000)
  reading atoms ...
  4322 atoms

# ------------------------ FORCE FIELDS ---------------------------------------------
pair_style	meam
pair_coeff	* * Fe3C_library_Liyanage_2014.meam Fe C Fe3C_Liyanage_2014.meam Fe C
neighbor	0.05 bin
neigh_modify	delay 0 every 1 check yes

# -----------------------EQUILIBRATION-----------------------------------------------
reset_timestep	0

min_style	cg
fix		1 all box/relax iso 0.0 vmax 0.001
minimize	1e-25 1e-25 100000 1000000
  update every 1 steps, delay 0 steps, check yes
Step Temp E_pair E_mol TotEng Press Volume
0            0   -16602.405            0   -16602.405    280290.67    47640.899
Loop time of 26.7116 on 40 procs for 6968 steps with 4322 atoms

Minimization stats:
  Stopping criterion = energy tolerance
  Energy initial, next-to-last, final =
  Force two-norm initial, final = 25017.61553365413 0.0008222515865493893
  Force max component initial, final = 25003.424183833355 0.000357318288788119
  Final line search alpha, max atom move = 0.4915103675990879 0.0001756256434721254
  Iterations, force evaluations = 6968 13614

unfix		1

variable	nst equal "step"
variable	temp equal 150
variable	e1 equal "pe"
variable	e2 equal "ke"
variable	e3 equal "etotal"

velocity 	all create 20 12345 mom yes rot no
fix		2 all nvt temp 20 150 $(1000*dt)
fix		2 all nvt temp 20 150 1

thermo 		1000
thermo_style 	custom step temp lx ly lz press pxx pyy pzz ke pe etotal

run 		40000 #Run for 40 picoseconds
Step Temp Lx Ly Lz Press Pxx Pyy Pzz KinEng PotEng TotEng
6968           20     20.14146     20.14146    120.84876     243.3705   -11340.994   -10863.067    22934.173    11.170662   -18861.988   -18850.818
Averages over the last 21 of 42 rows, steps 27000 to 46968:
Temp Lx Ly Lz Press Pxx Pyy Pzz KinEng PotEng TotEng
117.197 20.1415 20.1415 120.849 6767.17 681.906 1226.86 18392.8 65.4583 -18819.9 -18754.4
Loop time of 70.086 on 40 procs for 40000 steps with 4322 atoms

unfix		3
#unfix		2
# -----------------Store final cell length for strain calculations------------------------

variable 	tmp equal "lz"
variable 	Lz0 equal 120.848762886492
Initial Length, L0: 120.848762886492
variable	txA equal "lx*ly"
variable	xA equal 405.678430310988

#-------------------------REGIONS & VARIABLES-----------------------------------------
variable 	bothi equal "v_Lz0/6"
variable	toplo equal "v_Lz0-v_bothi"
region		bottom block INF INF INF INF 0.0 20.141460481082 units box
region		top block INF INF INF INF 100.70730240541 INF units box
region		middle block INF INF INF INF 20.141460481082 100.70730240541 units box

group		grest region bottom
737 atoms in group grest
group		gmove region top
705 atoms in group gmove
group 		mid region middle
2880 atoms in group mid
group		tempstat union grest mid
3617 atoms in group tempstat

variable 	srate equal 1e8
variable 	srate1 equal "v_srate / 1.0e12"
variable	vel equal "v_srate1*v_Lz0"

compute		midT mid temp
compute 	Fz grest property/atom fz
compute 	FZ grest reduce sum c_Fz

variable 	strain equal "(lz - v_Lz0)/v_Lz0"
variable 	p1 equal "v_strain"
variable 	p2 equal "-pxx/10000"
variable 	p3 equal "-pyy/10000"
variable 	p4 equal "-pzz/10000"
variable 	p5 equal "-c_FZ/v_xA*160.21766"
variable	mT equal "c_midT"

# ----------------------------DEFORMATION--------------------------------------------------
reset_timestep	0

thermo 		1000
thermo_style	custom step c_midT lz v_p1 v_p5 v_p2 v_p3 v_p4 press vol ke pe etotal

dump 	 	1 all custom 1000 dump.tensile id type x y z

fix		4 grest move linear 0 0 0 units box
#fix		4 gmove move linear 0 0 0.01 units box
fix		3 gmove deform 1 z vel 0.1 units box remap x

run 		100000 #every 1 "velocity grest set 0 0 0"
Step c_midT Lz v_p1 v_p5 v_p2 v_p3 v_p4 Press Volume KinEng PotEng TotEng
0    147.56453    120.84876 2.4694332e-15    1.6419834  -0.36797581  -0.45399897   -1.9187532      9135.76    49025.736    83.409384   -18804.483   -18721.074
Averages over the last 51 of 101 rows, steps 50000 to 100000:
c_midT Lz v_p1 v_p5 v_p2 v_p3 v_p4 Press Volume KinEng PotEng TotEng
141.643 128.349 0.062061 0.110766 7.31793 7.20878 9.5048 -80105 52068.3 65.5919 -18685.6 -18620
Loop time of 170.614 on 40 procs for 100000 steps with 4322 atoms

#run 		5000000 #every 1 "velocity grest set 0 0 0"

print 'All Done'
All Done
